version 2
1
9
.tran 0.01 10{return}{return}{return}.kicad adjustpaths{return}.save all{return}.probe alli
1
1
V(/AUDIO_R_INV_SCALED)
 
